@<TRIPOS>MOLECULE
MOL
   13    13     1     0     0
SMALL
bcc


@<TRIPOS>ATOM
      1 C           -2.4000     3.1970    -0.4870 C          1 MOL       0.127400
      2 C           -1.3740     2.1230    -0.0930 C          1 MOL      -0.106400
      3 C           -0.5210     2.7730     1.0080 C          1 MOL      -0.106400
      4 H           -0.7660     1.8290    -0.9520 H          1 MOL       0.051700
      5 H           -1.8840     1.2390     0.2970 H          1 MOL       0.051700
      6 C           -1.1180     4.1750     1.2000 C          1 MOL       0.127400
      7 H            0.5300     2.8340     0.7150 H          1 MOL       0.051700
      8 H           -0.5960     2.1980     1.9330 H          1 MOL       0.051700
      9 O           -2.4500     4.0690     0.6590 O          1 MOL      -0.427600
     10 H           -3.3860     2.7720    -0.6950 H          1 MOL       0.044700
     11 H           -2.0400     3.7670    -1.3490 H          1 MOL       0.044700
     12 H           -0.5570     4.9100     0.6140 H          1 MOL       0.044700
     13 H           -1.1510     4.4710     2.2530 H          1 MOL       0.044700
@<TRIPOS>BOND
     1     1     2 1   
     2     2     3 1   
     3     2     4 1   
     4     2     5 1   
     5     3     6 1   
     6     3     7 1   
     7     3     8 1   
     8     1     9 1   
     9     1    10 1   
    10     1    11 1   
    11     9     6 1   
    12     6    12 1   
    13     6    13 1   
@<TRIPOS>SUBSTRUCTURE
     1 MOL         1 TEMP              0 ****  ****    0 ROOT
